20
lsdalton20140924_geomOpt-b3lyp_Vanlenthe_6-31G_df-def2_Histidine_2CPU_16OMP_2014_10_28T1007 (in Angstrom)
H     -1.15020024911746      1.00820078412452      0.13470587374044
H     -1.98506863119686     -0.23928227052759      2.89699538559069
H     -1.06808176791829      1.82931115146659      2.34051857600246
H      0.30463055448435      0.88479382805089      2.48061697716636
H     -0.12595490199741     -1.18529455130737     -0.42416136159199
H      0.33376326266454     -1.43123111410212      1.25592009730808
H      2.83381848505629     -0.36931698592315      1.99883697547330
H      3.48598182125501      2.05582284663577     -1.37130411305831
H      1.14854226283905      1.01560425902433     -1.60599125742231
C     -2.24865547114092     -0.58422225325800      1.05293106989593
C      2.62939828200897      0.13482056760856      1.06773276496587
C      3.02772812276640      1.39474679038853     -0.65498287703290
C     -0.97007475691522      0.26815939669971      0.92533526875216
C      0.19857543548987     -0.66408051276508      0.48393582730550
C      1.49364072355980      0.05125000827450      0.28420397027879
N     -0.68065885151885      0.89669090646688      2.22889835960512
N      3.57899998237620      0.97158426665253      0.47698051258340
N      1.76005589397146      0.86871153472041     -0.81756019682817
O     -2.82134273548771     -1.07918800158001      0.08150490022615
O     -2.64082746193738     -0.76788064892183      2.34339325180997
